<?xml version="1.0" encoding="UTF-8"?>

<!-- generated on 2025-03-04 17:23:03 by Eclipse SUMO netedit Version 1.20.0
<configuration xmlns:xsi="http://www.w3.org/2001/XMLSchema-instance" xsi:noNamespaceSchemaLocation="http://sumo.dlr.de/xsd/neteditConfiguration.xsd">

    <input>
        <sumo-net-file value="C:\Users\yuyazhao\Desktop\HK_traffic_flow - new0117\20250304osm.net.xml"/>
    </input>

    <output>
        <output-file value="C:\Users\yuyazhao\Desktop\HK_traffic_flow - new0117\20250304osm.net.xml"/>
        <output.street-names value="true"/>
    </output>

    <processing>
        <geometry.min-radius.fix.railways value="false"/>
        <geometry.max-grade.fix value="false"/>
        <offset.disable-normalization value="true"/>
        <lefthand value="1"/>
    </processing>

    <junctions>
        <no-turnarounds value="true"/>
        <junctions.corner-detail value="5"/>
        <junctions.limit-turn-speed value="5.50"/>
        <rectangular-lane-cut value="0"/>
    </junctions>

    <pedestrian>
        <walkingareas value="0"/>
    </pedestrian>

</configuration>
-->

<net version="1.20" junctionCornerDetail="5" lefthand="true" limitTurnSpeed="5.50" xmlns:xsi="http://www.w3.org/2001/XMLSchema-instance" xsi:noNamespaceSchemaLocation="http://sumo.dlr.de/xsd/net_file.xsd">

    <location netOffset="-205599.86,-2469945.19" convBoundary="689.92,0.00,3266.34,3300.42" origBoundary="114.142007,22.310542,114.175277,22.344575" projParameter="+proj=utm +zone=50 +ellps=WGS84 +datum=WGS84 +units=m +no_defs"/>

    <type id="highway.primary" priority="12" numLanes="2" speed="27.78" disallow="tram rail_urban rail rail_electric rail_fast ship container cable_car subway aircraft wheelchair scooter drone" oneway="0"/>
    <type id="highway.primary_link" priority="7" numLanes="1" speed="22.22" disallow="tram rail_urban rail rail_electric rail_fast ship container cable_car subway aircraft wheelchair scooter drone" oneway="0"/>
    <type id="highway.residential" priority="3" numLanes="1" speed="13.89" disallow="tram rail_urban rail rail_electric rail_fast ship container cable_car subway aircraft wheelchair scooter drone" oneway="0"/>
    <type id="highway.secondary" priority="11" numLanes="1" speed="27.78" disallow="tram rail_urban rail rail_electric rail_fast ship container cable_car subway aircraft wheelchair scooter drone" oneway="0"/>
    <type id="highway.secondary_link" priority="6" numLanes="1" speed="22.22" disallow="tram rail_urban rail rail_electric rail_fast ship container cable_car subway aircraft wheelchair scooter drone" oneway="0"/>
    <type id="highway.tertiary" priority="10" numLanes="1" speed="22.22" disallow="tram rail_urban rail rail_electric rail_fast ship container cable_car subway aircraft wheelchair scooter drone" oneway="0"/>
    <type id="highway.tertiary_link" priority="5" numLanes="1" speed="22.22" disallow="tram rail_urban rail rail_electric rail_fast ship container cable_car subway aircraft wheelchair scooter drone" oneway="0"/>
    <type id="highway.trunk" priority="13" numLanes="2" speed="27.78" disallow="pedestrian bicycle tram rail_urban rail rail_electric rail_fast ship container cable_car subway aircraft wheelchair scooter drone" oneway="0"/>
    <type id="highway.trunk_link" priority="8" numLanes="1" speed="22.22" disallow="pedestrian bicycle tram rail_urban rail rail_electric rail_fast ship container cable_car subway aircraft wheelchair scooter drone" oneway="0"/>
    <type id="highway.unclassified" priority="4" numLanes="1" speed="13.89" disallow="tram rail_urban rail rail_electric rail_fast ship container cable_car subway aircraft wheelchair scooter drone" oneway="0"/>

    <edge id=":102438024#0-AddedOffRampNode_0" function="internal">
        <lane id=":102438024#0-AddedOffRampNode_0_0" index="0" disallow="tram rail_urban rail rail_electric rail_fast ship container cable_car subway aircraft wheelchair scooter drone" speed="27.78" length="8.20" shape="2505.40,690.89 2506.27,688.53 2507.59,687.18 2508.92,685.83 2509.79,683.47"/>
        <lane id=":102438024#0-AddedOffRampNode_0_1" index="1" disallow="tram rail_urban rail rail_electric rail_fast ship container cable_car subway aircraft wheelchair scooter drone" speed="27.78" length="8.20" shape="2505.40,690.89 2506.63,682.98"/>
        <lane id=":102438024#0-AddedOffRampNode_0_2" index="2" disallow="tram rail_urban rail rail_electric rail_fast ship container cable_car subway aircraft wheelchair scooter drone" speed="27.78" length="8.20" shape="2502.24,690.40 2503.46,682.49"/>
        <lane id=":102438024#0-AddedOffRampNode_0_3" index="3" disallow="tram rail_urban rail rail_electric rail_fast ship container cable_car subway aircraft wheelchair scooter drone" speed="27.78" length="8.20" shape="2499.07,689.91 2500.30,682.00"/>
    </edge>
    <edge id=":10566992981_0" function="internal">
        <lane id=":10566992981_0_0" index="0" disallow="tram rail_urban rail rail_electric rail_fast ship container cable_car subway aircraft wheelchair scooter drone" speed="27.78" length="8.16" shape="2370.00,1358.22 2369.45,1360.50 2368.70,1361.97 2367.91,1363.43 2367.29,1365.70"/>
        <lane id=":10566992981_0_1" index="1" disallow="tram rail_urban rail rail_electric rail_fast ship container cable_car subway aircraft wheelchair scooter drone" speed="27.78" length="8.16" shape="2373.17,1358.62 2372.62,1360.94 2371.86,1362.43 2371.08,1363.91 2370.45,1366.22"/>
        <lane id=":10566992981_0_2" index="2" disallow="tram rail_urban rail rail_electric rail_fast ship container cable_car subway aircraft wheelchair scooter drone" speed="27.78" length="8.16" shape="2376.35,1359.03 2375.79,1361.38 2375.03,1362.89 2374.24,1364.40 2373.60,1366.73"/>
        <lane id=":10566992981_0_3" index="3" disallow="tram rail_urban rail rail_electric rail_fast ship container cable_car subway aircraft wheelchair scooter drone" speed="27.78" length="8.16" shape="2376.35,1359.03 2376.29,1361.47 2376.61,1363.15 2376.91,1364.83 2376.76,1367.25"/>
    </edge>
    <edge id=":10566992987_0" function="internal">
        <lane id=":10566992987_0_0" index="0" disallow="tram rail_urban rail rail_electric rail_fast ship container cable_car subway aircraft wheelchair scooter drone" speed="27.78" length="1.59" shape="2407.46,1139.60 2405.89,1139.32"/>
        <lane id=":10566992987_0_1" index="1" disallow="tram rail_urban rail rail_electric rail_fast ship container cable_car subway aircraft wheelchair scooter drone" speed="27.78" length="1.59" shape="2410.61,1140.16 2409.04,1139.88"/>
        <lane id=":10566992987_0_2" index="2" disallow="tram rail_urban rail rail_electric rail_fast ship container cable_car subway aircraft wheelchair scooter drone" speed="27.78" length="1.59" shape="2413.76,1140.72 2412.19,1140.44"/>
    </edge>
    <edge id=":10566992992_0" function="internal">
        <lane id=":10566992992_0_0" index="0" disallow="pedestrian bicycle tram rail_urban rail rail_electric rail_fast ship container cable_car subway aircraft wheelchair scooter drone" speed="19.44" length="0.30" shape="2347.52,1358.69 2347.74,1358.48"/>
        <lane id=":10566992992_0_1" index="1" disallow="pedestrian bicycle tram rail_urban rail rail_electric rail_fast ship container cable_car subway aircraft wheelchair scooter drone" speed="19.44" length="0.30" shape="2345.28,1356.40 2345.50,1356.19"/>
        <lane id=":10566992992_0_2" index="2" disallow="pedestrian bicycle tram rail_urban rail rail_electric rail_fast ship container cable_car subway aircraft wheelchair scooter drone" speed="19.44" length="0.30" shape="2343.04,1354.12 2343.26,1353.91"/>
    </edge>
    <edge id=":10786928808_0" function="internal">
        <lane id=":10786928808_0_0" index="0" disallow="tram rail_urban rail rail_electric rail_fast ship container cable_car subway aircraft wheelchair scooter drone" speed="27.78" length="8.13" shape="2694.02,1598.65 2694.56,1596.39 2695.31,1594.94 2696.10,1593.50 2696.74,1591.25"/>
        <lane id=":10786928808_0_1" index="1" disallow="tram rail_urban rail rail_electric rail_fast ship container cable_car subway aircraft wheelchair scooter drone" speed="27.78" length="8.13" shape="2690.84,1598.25 2691.39,1595.95 2692.15,1594.47 2692.94,1593.00 2693.59,1590.71"/>
        <lane id=":10786928808_0_2" index="2" disallow="tram rail_urban rail rail_electric rail_fast ship container cable_car subway aircraft wheelchair scooter drone" speed="27.78" length="8.13" shape="2687.67,1597.85 2688.22,1595.50 2688.98,1594.00 2689.78,1592.49 2690.43,1590.17"/>
        <lane id=":10786928808_0_3" index="3" disallow="tram rail_urban rail rail_electric rail_fast ship container cable_car subway aircraft wheelchair scooter drone" speed="27.78" length="8.13" shape="2687.67,1597.85 2687.73,1595.41 2687.41,1593.72 2687.12,1592.04 2687.28,1589.62"/>
    </edge>
    <edge id=":10786928832_0" function="internal">
        <lane id=":10786928832_0_0" index="0" disallow="tram rail_urban rail rail_electric rail_fast ship container cable_car subway aircraft wheelchair scooter drone" speed="6.88" length="10.05" shape="2744.83,1629.96 2744.95,1627.22 2744.16,1625.08 2742.48,1623.54 2739.90,1622.61"/>
    </edge>
    <edge id=":10786928832_1" function="internal">
        <lane id=":10786928832_1_0" index="0" disallow="tram rail_urban rail rail_electric rail_fast ship container cable_car subway aircraft wheelchair scooter drone" speed="3.65" length="4.67" shape="2739.24,1625.74 2740.58,1625.20 2741.14,1624.50 2740.91,1623.64 2739.90,1622.61"/>
    </edge>
    <edge id=":10786928842_0" function="internal">
        <lane id=":10786928842_0_0" index="0" disallow="tram rail_urban rail rail_electric rail_fast ship container cable_car subway aircraft wheelchair scooter drone" speed="27.78" length="8.21" shape="2674.79,1617.86 2674.10,1620.17 2673.27,1621.65 2672.44,1623.13 2671.76,1625.44"/>
        <lane id=":10786928842_0_1" index="1" disallow="tram rail_urban rail rail_electric rail_fast ship container cable_car subway aircraft wheelchair scooter drone" speed="27.78" length="8.21" shape="2677.93,1618.44 2677.25,1620.75 2676.42,1622.23 2675.59,1623.70 2674.91,1626.01"/>
        <lane id=":10786928842_0_2" index="2" disallow="tram rail_urban rail rail_electric rail_fast ship container cable_car subway aircraft wheelchair scooter drone" speed="27.78" length="8.21" shape="2677.93,1618.44 2677.74,1620.84 2677.99,1622.51 2678.24,1624.19 2678.06,1626.59"/>
    </edge>
    <edge id=":10786928852_0" function="internal">
        <lane id=":10786928852_0_0" index="0" disallow="tram rail_urban rail rail_electric rail_fast ship container cable_car subway aircraft wheelchair scooter drone" speed="27.78" length="0.28" shape="2700.94,1566.80 2700.97,1566.61"/>
        <lane id=":10786928852_0_1" index="1" disallow="tram rail_urban rail rail_electric rail_fast ship container cable_car subway aircraft wheelchair scooter drone" speed="27.78" length="0.28" shape="2697.78,1566.27 2697.83,1566.02"/>
        <lane id=":10786928852_0_2" index="2" disallow="tram rail_urban rail rail_electric rail_fast ship container cable_car subway aircraft wheelchair scooter drone" speed="27.78" length="0.28" shape="2694.63,1565.73 2694.68,1565.42"/>
        <lane id=":10786928852_0_3" index="3" disallow="tram rail_urban rail rail_electric rail_fast ship container cable_car subway aircraft wheelchair scooter drone" speed="27.78" length="0.28" shape="2691.47,1565.20 2691.54,1564.83"/>
    </edge>
    <edge id=":10786928854_0" function="internal">
        <lane id=":10786928854_0_0" index="0" disallow="tram rail_urban rail rail_electric rail_fast ship container cable_car subway aircraft wheelchair scooter drone" speed="27.78" length="3.76" shape="2707.93,1476.17 2704.20,1475.57"/>
        <lane id=":10786928854_0_1" index="1" disallow="tram rail_urban rail rail_electric rail_fast ship container cable_car subway aircraft wheelchair scooter drone" speed="27.78" length="3.76" shape="2707.41,1479.33 2703.70,1478.73"/>
        <lane id=":10786928854_0_2" index="2" disallow="tram rail_urban rail rail_electric rail_fast ship container cable_car subway aircraft wheelchair scooter drone" speed="27.78" length="3.76" shape="2706.90,1482.48 2703.21,1481.89"/>
    </edge>
    <edge id=":10786928854_3" function="internal">
        <lane id=":10786928854_3_0" index="0" disallow="tram rail_urban rail rail_electric rail_fast ship container cable_car subway aircraft wheelchair scooter drone" speed="6.51" length="9.31" shape="2703.73,1487.70 2704.37,1483.88 2704.57,1481.11 2704.35,1479.39 2703.70,1478.73"/>
        <lane id=":10786928854_3_1" index="1" disallow="tram rail_urban rail rail_electric rail_fast ship container cable_car subway aircraft wheelchair scooter drone" speed="5.45" length="6.20" shape="2703.73,1487.70 2704.11,1485.25 2704.14,1483.47 2703.84,1482.35 2703.21,1481.89"/>
    </edge>
    <edge id=":10786928857_0" function="internal">
        <lane id=":10786928857_0_0" index="0" disallow="pedestrian tram rail_urban rail rail_electric rail_fast ship container cable_car subway aircraft wheelchair scooter drone" speed="22.22" length="0.23" shape="2700.19,1507.17 2700.19,1507.10 2700.19,1507.05 2700.20,1507.00 2700.21,1506.94"/>
    </edge>
    <edge id=":10786928859_0" function="internal">
        <lane id=":10786928859_0_0" index="0" disallow="tram rail_urban rail rail_electric rail_fast ship container cable_car subway aircraft wheelchair scooter drone" speed="27.78" length="10.80" shape="2707.18,1530.98 2709.19,1521.17"/>
        <lane id=":10786928859_0_1" index="1" disallow="tram rail_urban rail rail_electric rail_fast ship container cable_car subway aircraft wheelchair scooter drone" speed="27.78" length="10.80" shape="2704.01,1530.52 2706.16,1519.93"/>
        <lane id=":10786928859_0_2" index="2" disallow="tram rail_urban rail rail_electric rail_fast ship container cable_car subway aircraft wheelchair scooter drone" speed="27.78" length="10.80" shape="2700.84,1530.05 2703.14,1518.70"/>
    </edge>
    <edge id=":10786928859_3" function="internal">
        <lane id=":10786928859_3_0" index="0" disallow="pedestrian tram rail_urban rail rail_electric rail_fast ship container cable_car subway aircraft wheelchair scooter drone" speed="25.00" length="17.65" shape="2697.68,1529.59 2698.56,1523.88 2699.26,1519.45 2699.75,1515.72 2700.01,1512.11"/>
    </edge>
    <edge id=":10938720636_0" function="internal">
        <lane id=":10938720636_0_0" index="0" disallow="tram rail_urban rail rail_electric rail_fast ship container cable_car subway aircraft wheelchair scooter drone" speed="6.51" length="9.04" shape="2539.61,1105.81 2540.39,1103.46 2541.73,1101.92 2543.64,1101.19 2546.11,1101.28"/>
    </edge>
    <edge id=":10938720636_1" function="internal">
        <lane id=":10938720636_1_0" index="0" disallow="tram rail_urban rail rail_electric rail_fast ship container cable_car subway aircraft wheelchair scooter drone" speed="3.65" length="4.67" shape="2539.61,1105.81 2539.03,1104.49 2538.32,1103.95 2537.46,1104.20 2536.46,1105.24"/>
    </edge>
    <edge id=":10938720636_2" function="internal">
        <lane id=":10938720636_2_0" index="0" disallow="tram rail_urban rail rail_electric rail_fast ship container cable_car subway aircraft wheelchair scooter drone" speed="6.50" length="9.03" shape="2531.94,1098.74 2534.29,1099.51 2535.83,1100.86 2536.55,1102.77 2536.46,1105.24"/>
    </edge>
    <edge id=":10938720636_3" function="internal">
        <lane id=":10938720636_3_0" index="0" disallow="tram rail_urban rail rail_electric rail_fast ship container cable_car subway aircraft wheelchair scooter drone" speed="27.78" length="14.40" shape="2531.94,1098.74 2546.11,1101.28"/>
    </edge>
    <edge id=":10944171127_0" function="internal">
        <lane id=":10944171127_0_0" index="0" disallow="pedestrian bicycle tram rail_urban rail rail_electric rail_fast ship container cable_car subway aircraft wheelchair scooter drone" speed="16.66" length="0.30" shape="1632.23,1970.02 1632.45,1969.82"/>
    </edge>
    <edge id=":10944171130_0" function="internal">
        <lane id=":10944171130_0_0" index="0" disallow="pedestrian bicycle tram rail_urban rail rail_electric rail_fast ship container cable_car subway aircraft wheelchair scooter drone" speed="13.89" length="8.09" shape="1567.05,2021.65 1569.00,2020.31 1570.55,2019.72 1572.14,2019.17 1574.17,2017.93"/>
    </edge>
    <edge id=":10944171134_0" function="internal">
        <lane id=":10944171134_0_0" index="0" disallow="tram rail_urban rail rail_electric rail_fast ship container cable_car subway aircraft wheelchair scooter drone" speed="27.78" length="0.33" shape="1456.47,2131.27 1456.81,2131.00"/>
        <lane id=":10944171134_0_1" index="1" disallow="tram rail_urban rail rail_electric rail_fast ship container cable_car subway aircraft wheelchair scooter drone" speed="27.78" length="0.33" shape="1454.49,2128.76 1454.78,2128.53"/>
        <lane id=":10944171134_0_2" index="2" disallow="tram rail_urban rail rail_electric rail_fast ship container cable_car subway aircraft wheelchair scooter drone" speed="27.78" length="0.33" shape="1452.51,2126.25 1452.74,2126.06"/>
        <lane id=":10944171134_0_3" index="3" disallow="tram rail_urban rail rail_electric rail_fast ship container cable_car subway aircraft wheelchair scooter drone" speed="27.78" length="0.33" shape="1450.53,2123.73 1450.71,2123.59"/>
    </edge>
    <edge id=":10944171137_0" function="internal">
        <lane id=":10944171137_0_0" index="0" disallow="tram rail_urban rail rail_electric rail_fast ship container cable_car subway aircraft wheelchair scooter drone" speed="27.78" length="0.60" shape="1418.52,2161.15 1418.82,2160.91"/>
        <lane id=":10944171137_0_1" index="1" disallow="tram rail_urban rail rail_electric rail_fast ship container cable_car subway aircraft wheelchair scooter drone" speed="27.78" length="0.60" shape="1416.44,2158.73 1416.84,2158.39"/>
        <lane id=":10944171137_0_2" index="2" disallow="tram rail_urban rail rail_electric rail_fast ship container cable_car subway aircraft wheelchair scooter drone" speed="27.78" length="0.60" shape="1414.35,2156.30 1414.87,2155.88"/>
        <lane id=":10944171137_0_3" index="3" disallow="tram rail_urban rail rail_electric rail_fast ship container cable_car subway aircraft wheelchair scooter drone" speed="27.78" length="0.60" shape="1412.26,2153.87 1412.89,2153.36"/>
    </edge>
    <edge id=":10944171140_0" function="internal">
        <lane id=":10944171140_0_0" index="0" disallow="tram rail_urban rail rail_electric rail_fast ship container cable_car subway aircraft wheelchair scooter drone" speed="27.78" length="8.21" shape="1337.18,2379.14 1338.57,2381.10 1339.22,2382.67 1339.87,2384.23 1341.26,2386.20"/>
        <lane id=":10944171140_0_1" index="1" disallow="tram rail_urban rail rail_electric rail_fast ship container cable_car subway aircraft wheelchair scooter drone" speed="27.78" length="8.21" shape="1339.58,2377.02 1340.97,2378.98 1341.62,2380.55 1342.27,2382.12 1343.66,2384.08"/>
        <lane id=":10944171140_0_2" index="2" disallow="tram rail_urban rail rail_electric rail_fast ship container cable_car subway aircraft wheelchair scooter drone" speed="27.78" length="8.21" shape="1339.58,2377.02 1341.35,2378.65 1342.82,2379.49 1344.29,2380.33 1346.07,2381.97"/>
    </edge>
    <edge id=":11036319056_0" function="internal">
        <lane id=":11036319056_0_0" index="0" disallow="tram rail_urban rail rail_electric rail_fast ship container cable_car subway aircraft wheelchair scooter drone" speed="27.78" length="5.28" shape="2659.71,1468.09 2658.47,1468.15 2657.61,1467.99 2656.76,1467.72 2655.52,1467.44"/>
        <lane id=":11036319056_0_1" index="1" disallow="tram rail_urban rail rail_electric rail_fast ship container cable_car subway aircraft wheelchair scooter drone" speed="27.78" length="5.28" shape="2660.14,1471.26 2658.62,1471.36 2657.58,1471.21 2656.54,1470.92 2655.03,1470.60"/>
        <lane id=":11036319056_0_2" index="2" disallow="tram rail_urban rail rail_electric rail_fast ship container cable_car subway aircraft wheelchair scooter drone" speed="27.78" length="5.28" shape="2660.14,1471.26 2658.41,1471.89 2657.33,1472.84 2656.26,1473.63 2654.53,1473.76"/>
    </edge>
    <edge id=":1107287994_0" function="internal">
        <lane id=":1107287994_0_0" index="0" disallow="tram rail_urban rail rail_electric rail_fast ship container cable_car subway aircraft wheelchair scooter drone" speed="7.34" length="11.68" shape="3126.05,805.32 3125.74,809.17 3126.31,812.06 3127.73,813.99 3130.01,814.95"/>
        <lane id=":1107287994_0_1" index="1" disallow="tram rail_urban rail rail_electric rail_fast ship container cable_car subway aircraft wheelchair scooter drone" speed="6.52" length="9.00" shape="3126.05,805.32 3125.98,807.79 3126.71,809.69 3128.24,811.03 3130.57,811.80"/>
    </edge>
    <edge id=":1107287994_2" function="internal">
        <lane id=":1107287994_2_0" index="0" disallow="tram rail_urban rail rail_electric rail_fast ship container cable_car subway aircraft wheelchair scooter drone" speed="22.22" length="11.14" shape="3118.48,816.12 3129.44,818.10"/>
        <lane id=":1107287994_2_1" index="1" disallow="tram rail_urban rail rail_electric rail_fast ship container cable_car subway aircraft wheelchair scooter drone" speed="22.22" length="11.14" shape="3119.05,812.97 3130.01,814.95"/>
        <lane id=":1107287994_2_2" index="2" disallow="tram rail_urban rail rail_electric rail_fast ship container cable_car subway aircraft wheelchair scooter drone" speed="22.22" length="11.14" shape="3119.62,809.83 3130.57,811.80"/>
    </edge>
    <edge id=":1107287995_0" function="internal">
        <lane id=":1107287995_0_0" index="0" disallow="tram rail_urban rail rail_electric rail_fast ship container cable_car subway aircraft wheelchair scooter drone" speed="27.78" length="9.80" shape="3219.35,772.32 3215.96,781.56"/>
        <lane id=":1107287995_0_1" index="1" disallow="tram rail_urban rail rail_electric rail_fast ship container cable_car subway aircraft wheelchair scooter drone" speed="27.78" length="9.80" shape="3222.33,773.48 3218.98,782.63"/>
    </edge>
    <edge id=":1107287995_2" function="internal">
        <lane id=":1107287995_2_0" index="0" disallow="tram rail_urban rail rail_electric rail_fast ship container cable_car subway aircraft wheelchair scooter drone" speed="27.78" length="9.60" shape="3225.01,784.76 3228.30,775.79"/>
        <lane id=":1107287995_2_1" index="1" disallow="tram rail_urban rail rail_electric rail_fast ship container cable_car subway aircraft wheelchair scooter drone" speed="27.78" length="9.60" shape="3221.99,783.69 3225.32,774.64"/>
    </edge>
    <edge id=":1107287995_4" function="internal">
        <lane id=":1107287995_4_0" index="0" disallow="tram rail_urban rail rail_electric rail_fast ship container cable_car subway aircraft wheelchair scooter drone" speed="7.58" length="2.47" shape="3221.99,783.69 3222.16,781.23"/>
    </edge>
    <edge id=":1107287995_5" function="internal">
        <lane id=":1107287995_5_0" index="0" disallow="tram rail_urban rail rail_electric rail_fast ship container cable_car subway aircraft wheelchair scooter drone" speed="7.58" length="11.63" shape="3222.16,781.23 3222.18,781.01 3220.67,778.78 3217.48,777.01 3212.59,775.70"/>
    </edge>
    <edge id=":11134374488_0" function="internal">
        <lane id=":11134374488_0_0" index="0" disallow="tram rail_urban rail rail_electric rail_fast ship container cable_car subway aircraft wheelchair scooter drone" speed="27.78" length="8.21" shape="2654.33,933.63 2652.01,932.98 2650.52,932.17 2649.03,931.36 2646.71,930.71"/>
        <lane id=":11134374488_0_1" index="1" disallow="tram rail_urban rail rail_electric rail_fast ship container cable_car subway aircraft wheelchair scooter drone" speed="27.78" length="8.21" shape="2653.79,936.79 2651.47,936.14 2649.98,935.32 2648.50,934.51 2646.17,933.86"/>
        <lane id=":11134374488_0_2" index="2" disallow="tram rail_urban rail rail_electric rail_fast ship container cable_car subway aircraft wheelchair scooter drone" speed="27.78" length="8.21" shape="2653.25,939.94 2650.93,939.29 2649.45,938.48 2647.96,937.67 2645.64,937.02"/>
        <lane id=":11134374488_0_3" index="3" disallow="tram rail_urban rail rail_electric rail_fast ship container cable_car subway aircraft wheelchair scooter drone" speed="27.78" length="8.21" shape="2652.72,943.09 2650.39,942.44 2648.91,941.63 2647.42,940.82 2645.10,940.17"/>
        <lane id=":11134374488_0_4" index="4" disallow="tram rail_urban rail rail_electric rail_fast ship container cable_car subway aircraft wheelchair scooter drone" speed="27.78" length="8.21" shape="2652.72,943.09 2650.31,942.94 2648.64,943.21 2646.97,943.48 2644.56,943.33"/>
    </edge>
    <edge id=":11134510111_0" function="internal">
        <lane id=":11134510111_0_0" index="0" disallow="tram rail_urban rail rail_electric rail_fast ship container cable_car subway aircraft wheelchair scooter drone" speed="27.78" length="0.30" shape="2691.47,806.55 2691.52,806.24"/>
        <lane id=":11134510111_0_1" index="1" disallow="tram rail_urban rail rail_electric rail_fast ship container cable_car subway aircraft wheelchair scooter drone" speed="27.78" length="0.30" shape="2688.31,806.02 2688.36,805.72"/>
        <lane id=":11134510111_0_2" index="2" disallow="tram rail_urban rail rail_electric rail_fast ship container cable_car subway aircraft wheelchair scooter drone" speed="27.78" length="0.30" shape="2685.16,805.48 2685.21,805.20"/>
    </edge>
    <edge id=":11134510114_0" function="internal">
        <lane id=":11134510114_0_0" index="0" disallow="tram rail_urban rail rail_electric rail_fast ship container cable_car subway aircraft wheelchair scooter drone" speed="27.78" length="0.30" shape="2794.28,907.57 2794.23,907.87"/>
        <lane id=":11134510114_0_1" index="1" disallow="tram rail_urban rail rail_electric rail_fast ship container cable_car subway aircraft wheelchair scooter drone" speed="27.78" length="0.30" shape="2797.44,908.11 2797.38,908.41"/>
        <lane id=":11134510114_0_2" index="2" disallow="tram rail_urban rail rail_electric rail_fast ship container cable_car subway aircraft wheelchair scooter drone" speed="27.78" length="0.30" shape="2800.59,908.65 2800.54,908.95"/>
    </edge>
    <edge id=":11134510116_0" function="internal">
        <lane id=":11134510116_0_0" index="0" disallow="tram rail_urban rail rail_electric rail_fast ship container cable_car subway aircraft wheelchair scooter drone" speed="27.78" length="0.30" shape="2906.93,351.91 2906.98,351.61"/>
        <lane id=":11134510116_0_1" index="1" disallow="tram rail_urban rail rail_electric rail_fast ship container cable_car subway aircraft wheelchair scooter drone" speed="27.78" length="0.30" shape="2903.77,351.38 2903.82,351.08"/>
        <lane id=":11134510116_0_2" index="2" disallow="tram rail_urban rail rail_electric rail_fast ship container cable_car subway aircraft wheelchair scooter drone" speed="27.78" length="0.30" shape="2900.62,350.84 2900.67,350.55"/>
    </edge>
    <edge id=":11134510117_0" function="internal">
        <lane id=":11134510117_0_0" index="0" disallow="tram rail_urban rail rail_electric rail_fast ship container cable_car subway aircraft wheelchair scooter drone" speed="27.78" length="0.30" shape="2903.88,370.23 2903.93,369.94"/>
        <lane id=":11134510117_0_1" index="1" disallow="tram rail_urban rail rail_electric rail_fast ship container cable_car subway aircraft wheelchair scooter drone" speed="27.78" length="0.30" shape="2900.73,369.72 2900.77,369.42"/>
        <lane id=":11134510117_0_2" index="2" disallow="tram rail_urban rail rail_electric rail_fast ship container cable_car subway aircraft wheelchair scooter drone" speed="27.78" length="0.30" shape="2897.57,369.20 2897.62,368.91"/>
    </edge>
    <edge id=":11134510122_0" function="internal">
        <lane id=":11134510122_0_0" index="0" disallow="tram rail_urban rail rail_electric rail_fast ship container cable_car subway aircraft wheelchair scooter drone" speed="27.78" length="0.10" shape="2911.25,222.66 2911.25,222.66"/>
        <lane id=":11134510122_0_1" index="1" disallow="tram rail_urban rail rail_electric rail_fast ship container cable_car subway aircraft wheelchair scooter drone" speed="27.78" length="0.10" shape="2914.41,223.18 2914.41,223.18"/>
        <lane id=":11134510122_0_2" index="2" disallow="tram rail_urban rail rail_electric rail_fast ship container cable_car subway aircraft wheelchair scooter drone" speed="27.78" length="0.10" shape="2917.57,223.70 2917.57,223.70"/>
    </edge>
    <edge id=":11134510123_0" function="internal">
        <lane id=":11134510123_0_0" index="0" disallow="tram rail_urban rail rail_electric rail_fast ship container cable_car subway aircraft wheelchair scooter drone" speed="27.78" length="0.30" shape="2965.10,256.29 2964.80,256.26"/>
        <lane id=":11134510123_0_1" index="1" disallow="tram rail_urban rail rail_electric rail_fast ship container cable_car subway aircraft wheelchair scooter drone" speed="27.78" length="0.30" shape="2964.77,259.48 2964.47,259.44"/>
        <lane id=":11134510123_0_2" index="2" disallow="tram rail_urban rail rail_electric rail_fast ship container cable_car subway aircraft wheelchair scooter drone" speed="27.78" length="0.30" shape="2964.43,262.66 2964.14,262.63"/>
    </edge>
    <edge id=":11153075940_0" function="internal">
        <lane id=":11153075940_0_0" index="0" disallow="tram rail_urban rail rail_electric rail_fast ship container cable_car subway aircraft wheelchair scooter drone" speed="22.22" length="8.21" shape="1816.31,1986.56 1818.28,1985.17 1819.84,1984.52 1821.41,1983.88 1823.38,1982.49"/>