<?xml version="1.0" encoding="utf-8"?>
<routes>
    <vType vClass="passenger" color="yellow" minGap="2.5" accel="2.6" decel="4.5" maxSpeed="33.33" lcStrategic="1" lcCooperative="1" lcSpeedGain="1" lcAssertive="0.75" tau="1.2" speedFactor="norm(1,0.05)" id="HDV"/>
    <vType vClass="passenger" color="yellow" carFollowModel="Krauss" sigma="0.5" tau="1.4" minGap="2.5" accel="2.6" decel="4.0" maxSpeed="22.22" length="5" id="HDV_new"/>
    <vType vClass="passenger" color="blue" minGap="7.28894536" accel="1.80358659" decel="0.2542003" maxSpeed="41.31530379" tau="1.58680118" carFollowModel="IDM" laneChangeModel="LC2013" lcStrategic="1" lcCooperative="0.07141924624924251" lcSpeedGain="1" lcAssertive="0.75" lcAccelThreshold="1.797085455661397" speedFactor="norm(1,0.05)" id="CAV"/>
    <vType vClass="passenger" color="blue" carFollowModel="IDM" tau="1.0" minGap="2" accel="2.6" decel="5.0" maxSpeed="24.44" length="5" laneChangeModel="SL2015" lcSpeedGainLookahead="5" minGapLat="0.6" lcSublane="1.0" lcAssertive="1.0" lcAccelLat="1.0" lcMaxSpeedLatStanding="1.0" lcMaxSpeedLatFactor="1.6" id="CAV_new"/>
    <vType vClass="passenger" color="blue" carFollowModel="IDM" tau="0.8" minGap="1.5" accel="2.6" decel="5.0" maxSpeed="24.44" length="5" laneChangeModel="SL2015" lcSpeedGainLookahead="3" minGapLat="0.4" lcSublane="1.5" lcAssertive="1.5" lcAccelLat="1.0" lcMaxSpeedLatStanding="1.0" lcMaxSpeedLatFactor="1.6" id="CAV_aggressive"/>
    <flow id="OD1_OD2_CAV_aggressive_0" type="CAV_aggressive" from="OD1" to="OD2" begin="0" end="3600" number="3"/>
    <flow id="OD1_OD2_HDV_new_0" type="HDV_new" from="OD1" to="OD2" begin="0" end="3600" number="27"/>
    <flow id="OD1_OD3_CAV_aggressive_0" type="CAV_aggressive" from="OD1" to="OD3" begin="0" end="3600" number="3"/>
    <flow id="OD1_OD3_HDV_new_0" type="HDV_new" from="OD1" to="OD3" begin="0" end="3600" number="27"/>
    <flow id="OD1_OD4_CAV_aggressive_0" type="CAV_aggressive" from="OD1" to="OD4" begin="0" end="3600" number="3"/>
    <flow id="OD1_OD4_HDV_new_0" type="HDV_new" from="OD1" to="OD4" begin="0" end="3600" number="27"/>
    <flow id="OD1_OD5_CAV_aggressive_0" type="CAV_aggressive" from="OD1" to="OD5" begin="0" end="3600" number="3"/>
    <flow id="OD1_OD5_HDV_new_0" type="HDV_new" from="OD1" to="OD5" begin="0" end="3600" number="27"/>
    <flow id="OD1_OD6_CAV_aggressive_0" type="CAV_aggressive" from="OD1" to="OD6" begin="0" end="3600" number="3"/>
    <flow id="OD1_OD6_HDV_new_0" type="HDV_new" from="OD1" to="OD6" begin="0" end="3600" number="27"/>
    <flow id="OD1_OD7_CAV_aggressive_0" type="CAV_aggressive" from="OD1" to="OD7" begin="0" end="3600" number="3"/>
    <flow id="OD1_OD7_HDV_new_0" type="HDV_new" from="OD1" to="OD7" begin="0" end="3600" number="27"/>
    <flow id="OD1_OD8_CAV_aggressive_0" type="CAV_aggressive" from="OD1" to="OD8" begin="0" end="3600" number="3"/>
    <flow id="OD1_OD8_HDV_new_0" type="HDV_new" from="OD1" to="OD8" begin="0" end="3600" number="27"/>
    <flow id="OD1_OD9_CAV_aggressive_0" type="CAV_aggressive" from="OD1" to="OD9" begin="0" end="3600" number="3"/>
    <flow id="OD1_OD9_HDV_new_0" type="HDV_new" from="OD1" to="OD9" begin="0" end="3600" number="27"/>
    <flow id="OD1_OD10_CAV_aggressive_0" type="CAV_aggressive" from="OD1" to="OD10" begin="0" end="3600" number="3"/>
    <flow id="OD1_OD10_HDV_new_0" type="HDV_new" from="OD1" to="OD10" begin="0" end="3600" number="27"/>
    <flow id="OD1_OD11_CAV_aggressive_0" type="CAV_aggressive" from="OD1" to="OD11" begin="0" end="3600" number="3"/>
    <flow id="OD1_OD11_HDV_new_0" type="HDV_new" from="OD1" to="OD11" begin="0" end="3600" number="27"/>
    <flow id="OD1_OD12_CAV_aggressive_0" type="CAV_aggressive" from="OD1" to="OD12" begin="0" end="3600" number="3"/>
    <flow id="OD1_OD12_HDV_new_0" type="HDV_new" from="OD1" to="OD12" begin="0" end="3600" number="27"/>
    <flow id="OD1_OD13_CAV_aggressive_0" type="CAV_aggressive" from="OD1" to="OD13" begin="0" end="3600" number="3"/>
    <flow id="OD1_OD13_HDV_new_0" type="HDV_new" from="OD1" to="OD13" begin="0" end="3600" number="27"/>
    <flow id="OD1_OD14_CAV_aggressive_0" type="CAV_aggressive" from="OD1" to="OD14" begin="0" end="3600" number="3"/>
    <flow id="OD1_OD14_HDV_new_0" type="HDV_new" from="OD1" to="OD14" begin="0" end="3600" number="27"/>
    <flow id="OD1_OD15_CAV_aggressive_0" type="CAV_aggressive" from="OD1" to="OD15" begin="0" end="3600" number="3"/>
    <flow id="OD1_OD15_HDV_new_0" type="HDV_new" from="OD1" to="OD15" begin="0" end="3600" number="27"/>
    <flow id="OD2_OD1_CAV_aggressive_0" type="CAV_aggressive" from="OD2" to="OD1" begin="0" end="3600" number="3"/>
    <flow id="OD2_OD1_HDV_new_0" type="HDV_new" from="OD2" to="OD1" begin="0" end="3600" number="27"/>
    <flow id="OD2_OD3_CAV_aggressive_0" type="CAV_aggressive" from="OD2" to="OD3" begin="0" end="3600" number="3"/>
    <flow id="OD2_OD3_HDV_new_0" type="HDV_new" from="OD2" to="OD3" begin="0" end="3600" number="27"/>
    <flow id="OD2_OD4_CAV_aggressive_0" type="CAV_aggressive" from="OD2" to="OD4" begin="0" end="3600" number="3"/>
    <flow id="OD2_OD4_HDV_new_0" type="HDV_new" from="OD2" to="OD4" begin="0" end="3600" number="27"/>
    <flow id="OD2_OD5_CAV_aggressive_0" type="CAV_aggressive" from="OD2" to="OD5" begin="0" end="3600" number="3"/>
    <flow id="OD2_OD5_HDV_new_0" type="HDV_new" from="OD2" to="OD5" begin="0" end="3600" number="27"/>
    <flow id="OD2_OD6_CAV_aggressive_0" type="CAV_aggressive" from="OD2" to="OD6" begin="0" end="3600" number="3"/>
    <flow id="OD2_OD6_HDV_new_0" type="HDV_new" from="OD2" to="OD6" begin="0" end="3600" number="27"/>
    <flow id="OD2_OD7_CAV_aggressive_0" type="CAV_aggressive" from="OD2" to="OD7" begin="0" end="3600" number="3"/>
    <flow id="OD2_OD7_HDV_new_0" type="HDV_new" from="OD2" to="OD7" begin="0" end="3600" number="27"/>
    <flow id="OD2_OD8_CAV_aggressive_0" type="CAV_aggressive" from="OD2" to="OD8" begin="0" end="3600" number="3"/>
    <flow id="OD2_OD8_HDV_new_0" type="HDV_new" from="OD2" to="OD8" begin="0" end="3600" number="27"/>
    <flow id="OD2_OD9_CAV_aggressive_0" type="CAV_aggressive" from="OD2" to="OD9" begin="0" end="3600" number="3"/>
    <flow id="OD2_OD9_HDV_new_0" type="HDV_new" from="OD2" to="OD9" begin="0" end="3600" number="27"/>
    <flow id="OD2_OD10_CAV_aggressive_0" type="CAV_aggressive" from="OD2" to="OD10" begin="0" end="3600" number="3"/>
    <flow id="OD2_OD10_HDV_new_0" type="HDV_new" from="OD2" to="OD10" begin="0" end="3600" number="27"/>
    <flow id="OD2_OD11_CAV_aggressive_0" type="CAV_aggressive" from="OD2" to="OD11" begin="0" end="3600" number="3"/>
    <flow id="OD2_OD11_HDV_new_0" type="HDV_new" from="OD2" to="OD11" begin="0" end="3600" number="27"/>
    <flow id="OD2_OD12_CAV_aggressive_0" type="CAV_aggressive" from="OD2" to="OD12" begin="0" end="3600" number="3"/>
    <flow id="OD2_OD12_HDV_new_0" type="HDV_new" from="OD2" to="OD12" begin="0" end="3600" number="27"/>
    <flow id="OD2_OD13_CAV_aggressive_0" type="CAV_aggressive" from="OD2" to="OD13" begin="0" end="3600" number="3"/>
    <flow id="OD2_OD13_HDV_new_0" type="HDV_new" from="OD2" to="OD13" begin="0" end="3600" number="27"/>
    <flow id="OD2_OD14_CAV_aggressive_0" type="CAV_aggressive" from="OD2" to="OD14" begin="0" end="3600" number="3"/>
    <flow id="OD2_OD14_HDV_new_0" type="HDV_new" from="OD2" to="OD14" begin="0" end="3600" number="27"/>
    <flow id="OD2_OD15_CAV_aggressive_0" type="CAV_aggressive" from="OD2" to="OD15" begin="0" end="3600" number="3"/>
    <flow id="OD2_OD15_HDV_new_0" type="HDV_new" from="OD2" to="OD15" begin="0" end="3600" number="27"/>
    <flow id="OD3_OD1_CAV_aggressive_0" type="CAV_aggressive" from="OD3" to="OD1" begin="0" end="3600" number="3"/>
    <flow id="OD3_OD1_HDV_new_0" type="HDV_new" from="OD3" to="OD1" begin="0" end="3600" number="27"/>
    <flow id="OD3_OD2_CAV_aggressive_0" type="CAV_aggressive" from="OD3" to="OD2" begin="0" end="3600" number="3"/>
    <flow id="OD3_OD2_HDV_new_0" type="HDV_new" from="OD3" to="OD2" begin="0" end="3600" number="27"/>
    <flow id="OD3_OD4_CAV_aggressive_0" type="CAV_aggressive" from="OD3" to="OD4" begin="0" end="3600" number="3"/>
    <flow id="OD3_OD4_HDV_new_0" type="HDV_new" from="OD3" to="OD4" begin="0" end="3600" number="27"/>
    <flow id="OD3_OD5_CAV_aggressive_0" type="CAV_aggressive" from="OD3" to="OD5" begin="0" end="3600" number="3"/>
    <flow id="OD3_OD5_HDV_new_0" type="HDV_new" from="OD3" to="OD5" begin="0" end="3600" number="27"/>
    <flow id="OD3_OD6_CAV_aggressive_0" type="CAV_aggressive" from="OD3" to="OD6" begin="0" end="3600" number="3"/>
    <flow id="OD3_OD6_HDV_new_0" type="HDV_new" from="OD3" to="OD6" begin="0" end="3600" number="27"/>
    <flow id="OD3_OD7_CAV_aggressive_0" type="CAV_aggressive" from="OD3" to="OD7" begin="0" end="3600" number="3"/>
    <flow id="OD3_OD7_HDV_new_0" type="HDV_new" from="OD3" to="OD7" begin="0" end="3600" number="27"/>
    <flow id="OD3_OD8_CAV_aggressive_0" type="CAV_aggressive" from="OD3" to="OD8" begin="0" end="3600" number="3"/>
    <flow id="OD3_OD8_HDV_new_0" type="HDV_new" from="OD3" to="OD8" begin="0" end="3600" number="27"/>
    <flow id="OD3_OD9_CAV_aggressive_0" type="CAV_aggressive" from="OD3" to="OD9" begin="0" end="3600" number="3"/>
    <flow id="OD3_OD9_HDV_new_0" type="HDV_new" from="OD3" to="OD9" begin="0" end="3600" number="27"/>
    <flow id="OD3_OD10_CAV_aggressive_0" type="CAV_aggressive" from="OD3" to="OD10" begin="0" end="3600" number="3"/>
    <flow id="OD3_OD10_HDV_new_0" type="HDV_new" from="OD3" to="OD10" begin="0" end="3600" number="27"/>
    <flow id="OD3_OD11_CAV_aggressive_0" type="CAV_aggressive" from="OD3" to="OD11" begin="0" end="3600" number="3"/>
    <flow id="OD3_OD11_HDV_new_0" type="HDV_new" from="OD3" to="OD11" begin="0" end="3600" number="27"/>
    <flow id="OD3_OD12_CAV_aggressive_0" type="CAV_aggressive" from="OD3" to="OD12" begin="0" end="3600" number="3"/>
    <flow id="OD3_OD12_HDV_new_0" type="HDV_new" from="OD3" to="OD12" begin="0" end="3600" number="27"/>
    <flow id="OD3_OD13_CAV_aggressive_0" type="CAV_aggressive" from="OD3" to="OD13" begin="0" end="3600" number="3"/>
    <flow id="OD3_OD13_HDV_new_0" type="HDV_new" from="OD3" to="OD13" begin="0" end="3600" number="27"/>
    <flow id="OD3_OD14_CAV_aggressive_0" type="CAV_aggressive" from="OD3" to="OD14" begin="0" end="3600" number="3"/>
    <flow id="OD3_OD14_HDV_new_0" type="HDV_new" from="OD3" to="OD14" begin="0" end="3600" number="27"/>
    <flow id="OD3_OD15_CAV_aggressive_0" type="CAV_aggressive" from="OD3" to="OD15" begin="0" end="3600" number="3"/>
    <flow id="OD3_OD15_HDV_new_0" type="HDV_new" from="OD3" to="OD15" begin="0" end="3600" number="27"/>
    <flow id="OD4_OD1_CAV_aggressive_0" type="CAV_aggressive" from="OD4" to="OD1" begin="0" end="3600" number="3"/>
    <flow id="OD4_OD1_HDV_new_0" type="HDV_new" from="OD4" to="OD1" begin="0" end="3600" number="27"/>
    <flow id="OD4_OD2_CAV_aggressive_0" type="CAV_aggressive" from="OD4" to="OD2" begin="0" end="3600" number="3"/>
    <flow id="OD4_OD2_HDV_new_0" type="HDV_new" from="OD4" to="OD2" begin="0" end="3600" number="27"/>
    <flow id="OD4_OD3_CAV_aggressive_0" type="CAV_aggressive" from="OD4" to="OD3" begin="0" end="3600" number="3"/>
    <flow id="OD4_OD3_HDV_new_0" type="HDV_new" from="OD4" to="OD3" begin="0" end="3600" number="27"/>
    <flow id="OD4_OD5_CAV_aggressive_0" type="CAV_aggressive" from="OD4" to="OD5" begin="0" end="3600" number="3"/>
    <flow id="OD4_OD5_HDV_new_0" type="HDV_new" from="OD4" to="OD5" begin="0" end="3600" number="27"/>
    <flow id="OD4_OD6_CAV_aggressive_0" type="CAV_aggressive" from="OD4" to="OD6" begin="0" end="3600" number="3"/>
    <flow id="OD4_OD6_HDV_new_0" type="HDV_new" from="OD4" to="OD6" begin="0" end="3600" number="27"/>
    <flow id="OD4_OD7_CAV_aggressive_0" type="CAV_aggressive" from="OD4" to="OD7" begin="0" end="3600" number="3"/>
    <flow id="OD4_OD7_HDV_new_0" type="HDV_new" from="OD4" to="OD7" begin="0" end="3600" number="27"/>
    <flow id="OD4_OD8_CAV_aggressive_0" type="CAV_aggressive" from="OD4" to="OD8" begin="0" end="3600" number="3"/>
    <flow id="OD4_OD8_HDV_new_0" type="HDV_new" from="OD4" to="OD8" begin="0" end="3600" number="27"/>
    <flow id="OD4_OD9_CAV_aggressive_0" type="CAV_aggressive" from="OD4" to="OD9" begin="0" end="3600" number="3"/>
    <flow id="OD4_OD9_HDV_new_0" type="HDV_new" from="OD4" to="OD9" begin="0" end="3600" number="27"/>
    <flow id="OD4_OD10_CAV_aggressive_0" type="CAV_aggressive" from="OD4" to="OD10" begin="0" end="3600" number="3"/>
    <flow id="OD4_OD10_HDV_new_0" type="HDV_new" from="OD4" to="OD10" begin="0" end="3600" number="27"/>
    <flow id="OD4_OD11_CAV_aggressive_0" type="CAV_aggressive" from="OD4" to="OD11" begin="0" end="3600" number="3"/>
    <flow id="OD4_OD11_HDV_new_0" type="HDV_new" from="OD4" to="OD11" begin="0" end="3600" number="27"/>
    <flow id="OD4_OD12_CAV_aggressive_0" type="CAV_aggressive" from="OD4" to="OD12" begin="0" end="3600" number="3"/>
    <flow id="OD4_OD12_HDV_new_0" type="HDV_new" from="OD4" to="OD12" begin="0" end="3600" number="27"/>
    <flow id="OD4_OD13_CAV_aggressive_0" type="CAV_aggressive" from="OD4" to="OD13" begin="0" end="3600" number="3"/>
    <flow id="OD4_OD13_HDV_new_0" type="HDV_new" from="OD4" to="OD13" begin="0" end="3600" number="27"/>
    <flow id="OD4_OD14_CAV_aggressive_0" type="CAV_aggressive" from="OD4" to="OD14" begin="0" end="3600" number="3"/>
    <flow id="OD4_OD14_HDV_new_0" type="HDV_new" from="OD4" to="OD14" begin="0" end="3600" number="27"/>
    <flow id="OD4_OD15_CAV_aggressive_0" type="CAV_aggressive" from="OD4" to="OD15" begin="0" end="3600" number="3"/>
    <flow id="OD4_OD15_HDV_new_0" type="HDV_new" from="OD4" to="OD15" begin="0" end="3600" number="27"/>
    <flow id="OD5_OD1_CAV_aggressive_0" type="CAV_aggressive" from="OD5" to="OD1" begin="0" end="3600" number="3"/>
    <flow id="OD5_OD1_HDV_new_0" type="HDV_new" from="OD5" to="OD1" begin="0" end="3600" number="27"/>
    <flow id="OD5_OD2_CAV_aggressive_0" type="CAV_aggressive" from="OD5" to="OD2" begin="0" end="3600" number="3"/>
    <flow id="OD5_OD2_HDV_new_0" type="HDV_new" from="OD5" to="OD2" begin="0" end="3600" number="27"/>
    <flow id="OD5_OD3_CAV_aggressive_0" type="CAV_aggressive" from="OD5" to="OD3" begin="0" end="3600" number="3"/>
    <flow id="OD5_OD3_HDV_new_0" type="HDV_new" from="OD5" to="OD3" begin="0" end="3600" number="27"/>
    <flow id="OD5_OD4_CAV_aggressive_0" type="CAV_aggressive" from="OD5" to="OD4" begin="0" end="3600" number="3"/>
    <flow id="OD5_OD4_HDV_new_0" type="HDV_new" from="OD5" to="OD4" begin="0" end="3600" number="27"/>
    <flow id="OD5_OD6_CAV_aggressive_0" type="CAV_aggressive" from="OD5" to="OD6" begin="0" end="3600" number="3"/>
    <flow id="OD5_OD6_HDV_new_0" type="HDV_new" from="OD5" to="OD6" begin="0" end="3600" number="27"/>
    <flow id="OD5_OD7_CAV_aggressive_0" type="CAV_aggressive" from="OD5" to="OD7" begin="0" end="3600" number="3"/>
    <flow id="OD5_OD7_HDV_new_0" type="HDV_new" from="OD5" to="OD7" begin="0" end="3600" number="27"/>
    <flow id="OD5_OD8_CAV_aggressive_0" type="CAV_aggressive" from="OD5" to="OD8" begin="0" end="3600" number="3"/>
    <flow id="OD5_OD8_HDV_new_0" type="HDV_new" from="OD5" to="OD8" begin="0" end="3600" number="27"/>
    <flow id="OD5_OD9_CAV_aggressive_0" type="CAV_aggressive" from="OD5" to="OD9" begin="0" end="3600" number="3"/>
    <flow id="OD5_OD9_HDV_new_0" type="HDV_new" from="OD5" to="OD9" begin="0" end="3600" number="27"/>
    <flow id="OD5_OD10_CAV_aggressive_0" type="CAV_aggressive" from="OD5" to="OD10" begin="0" end="3600" number="3"/>
    <flow id="OD5_OD10_HDV_new_0" type="HDV_new" from="OD5" to="OD10" begin="0" end="3600" number="27"/>
    <flow id="OD5_OD11_CAV_aggressive_0" type="CAV_aggressive" from="OD5" to="OD11" begin="0" end="3600" number="3"/>
    <flow id="OD5_OD11_HDV_new_0" type="HDV_new" from="OD5" to="OD11" begin="0" end="3600" number="27"/>
    <flow id="OD5_OD12_CAV_aggressive_0" type="CAV_aggressive" from="OD5" to="OD12" begin="0" end="3600" number="3"/>
    <flow id="OD5_OD12_HDV_new_0" type="HDV_new" from="OD5" to="OD12" begin="0" end="3600" number="27"/>
    <flow id="OD5_OD13_CAV_aggressive_0" type="CAV_aggressive" from="OD5" to="OD13" begin="0" end="3600" number="3"/>
    <flow id="OD5_OD13_HDV_new_0" type="HDV_new" from="OD5" to="OD13" begin="0" end="3600" number="27"/>
    <flow id="OD5_OD14_CAV_aggressive_0" type="CAV_aggressive" from="OD5" to="OD14" begin="0" end="3600" number="3"/>
    <flow id="OD5_OD14_HDV_new_0" type="HDV_new" from="OD5" to="OD14" begin="0" end="3600" number="27"/>
    <flow id="OD5_OD15_CAV_aggressive_0" type="CAV_aggressive" from="OD5" to="OD15" begin="0" end="3600" number="3"/>
    <flow id="OD5_OD15_HDV_new_0" type="HDV_new" from="OD5" to="OD15" begin="0" end="3600" number="27"/>
    <flow id="OD6_OD1_CAV_aggressive_0" type="CAV_aggressive" from="OD6" to="OD1" begin="0" end="3600" number="3"/>
    <flow id="OD6_OD1_HDV_new_0" type="HDV_new" from="OD6" to="OD1" begin="0" end="3600" number="27"/>
    <flow id="OD6_OD2_CAV_aggressive_0" type="CAV_aggressive" from="OD6" to="OD2" begin="0" end="3600" number="3"/>
    <flow id="OD6_OD2_HDV_new_0" type="HDV_new" from="OD6" to="OD2" begin="0" end="3600" number="27"/>
    <flow id="OD6_OD3_CAV_aggressive_0" type="CAV_aggressive" from="OD6" to="OD3" begin="0" end="3600" number="3"/>
    <flow id="OD6_OD3_HDV_new_0" type="HDV_new" from="OD6" to="OD3" begin="0" end="3600" number="27"/>
    <flow id="OD6_OD4_CAV_aggressive_0" type="CAV_aggressive" from="OD6" to="OD4" begin="0" end="3600" number="3"/>
    <flow id="OD6_OD4_HDV_new_0" type="HDV_new" from="OD6" to="OD4" begin="0" end="3600" number="27"/>
    <flow id="OD6_OD5_CAV_aggressive_0" type="CAV_aggressive" from="OD6" to="OD5" begin="0" end="3600" number="3"/>
    <flow id="OD6_OD5_HDV_new_0" type="HDV_new" from="OD6" to="OD5" begin="0" end="3600" number="27"/>
    <flow id="OD6_OD7_CAV_aggressive_0" type="CAV_aggressive" from="OD6" to="OD7" begin="0" end="3600" number="3"/>
    <flow id="OD6_OD7_HDV_new_0" type="HDV_new" from="OD6" to="OD7" begin="0" end="3600" number="27"/>
    <flow id="OD6_OD8_CAV_aggressive_0" type="CAV_aggressive" from="OD6" to="OD8" begin="0" end="3600" number="3"/>
    <flow id="OD6_OD8_HDV_new_0" type="HDV_new" from="OD6" to="OD8" begin="0" end="3600" number="27"/>
    <flow id="OD6_OD9_CAV_aggressive_0" type="CAV_aggressive" from="OD6" to="OD9" begin="0" end="3600" number="3"/>
    <flow id="OD6_OD9_HDV_new_0" type="HDV_new" from="OD6" to="OD9" begin="0" end="3600" number="27"/>
    <flow id="OD6_OD10_CAV_aggressive_0" type="CAV_aggressive" from="OD6" to="OD10" begin="0" end="3600" number="3"/>
    <flow id="OD6_OD10_HDV_new_0" type="HDV_new" from="OD6" to="OD10" begin="0" end="3600" number="27"/>
    <flow id="OD6_OD11_CAV_aggressive_0" type="CAV_aggressive" from="OD6" to="OD11" begin="0" end="3600" number="3"/>
    <flow id="OD6_OD11_HDV_new_0" type="HDV_new" from="OD6" to="OD11" begin="0" end="3600" number="27"/>
    <flow id="OD6_OD12_CAV_aggressive_0" type="CAV_aggressive" from="OD6" to="OD12" begin="0" end="3600" number="3"/>
    <flow id="OD6_OD12_HDV_new_0" type="HDV_new" from="OD6" to="OD12" begin="0" end="3600" number="27"/>
    <flow id="OD6_OD13_CAV_aggressive_0" type="CAV_aggressive" from="OD6" to="OD13" begin="0" end="3600" number="3"/>
    <flow id="OD6_OD13_HDV_new_0" type="HDV_new" from="OD6" to="OD13" begin="0" end="3600" number="27"/>
    <flow id="OD6_OD14_CAV_aggressive_0" type="CAV_aggressive" from="OD6" to="OD14" begin="0" end="3600" number="3"/>
    <flow id="OD6_OD14_HDV_new_0" type="HDV_new" from="OD6" to="OD14" begin="0" end="3600" number="27"/>
    <flow id="OD6_OD15_CAV_aggressive_0" type="CAV_aggressive" from="OD6" to="OD15" begin="0" end="3600" number="3"/>
    <flow id="OD6_OD15_HDV_new_0" type="HDV_new" from="OD6" to="OD15" begin="0" end="3600" number="27"/>
    <flow id="OD7_OD1_CAV_aggressive_0" type="CAV_aggressive" from="OD7" to="OD1" begin="0" end="3600" number="3"/>
    <flow id="OD7_OD1_HDV_new_0" type="HDV_new" from="OD7" to="OD1" begin="0" end="3600" number="27"/>
    <flow id="OD7_OD2_CAV_aggressive_0" type="CAV_aggressive" from="OD7" to="OD2" begin="0" end="3600" number="3"/>
    <flow id="OD7_OD2_HDV_new_0" type="HDV_new" from="OD7" to="OD2" begin="0" end="3600" number="27"/>
    <flow id="OD7_OD3_CAV_aggressive_0" type="CAV_aggressive" from="OD7" to="OD3" begin="0" end="3600" number="3"/>
    <flow id="OD7_OD3_HDV_new_0" type="HDV_new" from="OD7" to="OD3" begin="0" end="3600" number="27"/>
    <flow id="OD7_OD4_CAV_aggressive_0" type="CAV_aggressive" from="OD7" to="OD4" begin="0" end="3600" number="3"/>
    <flow id="OD7_OD4_HDV_new_0" type="HDV_new" from="OD7" to="OD4" begin="0" end="3600" number="27"/>
    <flow id="OD7_OD5_CAV_aggressive_0" type="CAV_aggressive" from="OD7" to="OD5" begin="0" end="3600" number="3"/>
    <flow id="OD7_OD5_HDV_new_0" type="HDV_new" from="OD7" to="OD5" begin="0" end="3600" number="27"/>
    <flow id="OD7_OD6_CAV_aggressive_0" type="CAV_aggressive" from="OD7" to="OD6" begin="0" end="3600" number="3"/>
    <flow id="OD7_OD6_HDV_new_0" type="HDV_new" from="OD7" to="OD6" begin="0" end="3600" number="27"/>
    <flow id="OD7_OD8_CAV_aggressive_0" type="CAV_aggressive" from="OD7" to="OD8" begin="0" end="3600" number="3"/>
    <flow id="OD7_OD8_HDV_new_0" type="HDV_new" from="OD7" to="OD8" begin="0" end="3600" number="27"/>
    <flow id="OD7_OD9_CAV_aggressive_0" type="CAV_aggressive" from="OD7" to="OD9" begin="0" end="3600" number="3"/>
    <flow id="OD7_OD9_HDV_new_0" type="HDV_new" from="OD7" to="OD9" begin="0" end="3600" number="27"/>
    <flow id="OD7_OD10_CAV_aggressive_0" type="CAV_aggressive" from="OD7" to="OD10" begin="0" end="3600" number="3"/>
    <flow id="OD7_OD10_HDV_new_0" type="HDV_new" from="OD7" to="OD10" begin="0" end="3600" number="27"/>
    <flow id="OD7_OD11_CAV_aggressive_0" type="CAV_aggressive" from="OD7" to="OD11" begin="0" end="3600" number="3"/>
    <flow id="OD7_OD11_HDV_new_0" type="HDV_new" from="OD7" to="OD11" begin="0" end="3600" number="27"/>
    <flow id="OD7_OD12_CAV_aggressive_0" type="CAV_aggressive" from="OD7" to="OD12" begin="0" end="3600" number="3"/>
    <flow id="OD7_OD12_HDV_new_0" type="HDV_new" from="OD7" to="OD12" begin="0" end="3600" number="27"/>
    <flow id="OD7_OD13_CAV_aggressive_0" type="CAV_aggressive" from="OD7" to="OD13" begin="0" end="3600" number="3"/>
    <flow id="OD7_OD13_HDV_new_0" type="HDV_new" from="OD7" to="OD13" begin="0" end="3600" number="27"/>
    <flow id="OD7_OD14_CAV_aggressive_0" type="CAV_aggressive" from="OD7" to="OD14" begin="0" end="3600" number="3"/>
    <flow id="OD7_OD14_HDV_new_0" type="HDV_new" from="OD7" to="OD14" begin="0" end="3600" number="27"/>
    <flow id="OD7_OD15_CAV_aggressive_0" type="CAV_aggressive" from="OD7" to="OD15" begin="0" end="3600" number="3"/>
    <flow id="OD7_OD15_HDV_new_0" type="HDV_new" from="OD7" to="OD15" begin="0" end="3600" number="27"/>
    <flow id="OD8_OD1_CAV_aggressive_0" type="CAV_aggressive" from="OD8" to="OD1" begin="0" end="3600" number="3"/>
    <flow id="OD8_OD1_HDV_new_0" type="HDV_new" from="OD8" to="OD1" begin="0" end="3600" number="27"/>
    <flow id="OD8_OD2_CAV_aggressive_0" type="CAV_aggressive" from="OD8" to="OD2" begin="0" end="3600" number="3"/>
    <flow id="OD8_OD2_HDV_new_0" type="HDV_new" from="OD8" to="OD2" begin="0" end="3600" number="27"/>
    <flow id="OD8_OD3_CAV_aggressive_0" type="CAV_aggressive" from="OD8" to="OD3" begin="0" end="3600" number="3"/>
    <flow id="OD8_OD3_HDV_new_0" type="HDV_new" from="OD8" to="OD3" begin="0" end="3600" number="27"/>
    <flow id="OD8_OD4_CAV_aggressive_0" type="CAV_aggressive" from="OD8" to="OD4" begin="0" end="3600" number="3"/>
    <flow id="OD8_OD4_HDV_new_0" type="HDV_new" from="OD8" to="OD4" begin="0" end="3600" number="27"/>
    <flow id="OD8_OD5_CAV_aggressive_0" type="CAV_aggressive" from="OD8" to="OD5" begin="0" end="3600" number="3"/>
    <flow id="OD8_OD5_HDV_new_0" type="HDV_new" from="OD8" to="OD5" begin="0" end="3600" number="27"/>
    <flow id="OD8_OD6_CAV_aggressive_0" type="CAV_aggressive" from="OD8" to="OD6" begin="0" end="3600" number="3"/>
    <flow id="OD8_OD6_HDV_new_0" type="HDV_new" from="OD8" to="OD6" begin="0" end="3600" number="27"/>
    <flow id="OD8_OD7_CAV_aggressive_0" type="CAV_aggressive" from="OD8" to="OD7" begin="0" end="3600" number="3"/>
    <flow id="OD8_OD7_HDV_new_0" type="HDV_new" from="OD8" to="OD7" begin="0" end="3600" number="27"/>
    <flow id="OD8_OD9_CAV_aggressive_0" type="CAV_aggressive" from="OD8" to="OD9" begin="0" end="3600" number="3"/>
    <flow id="OD8_OD9_HDV_new_0" type="HDV_new" from="OD8" to="OD9" begin="0" end="3600" number="27"/>
    <flow id="OD8_OD10_CAV_aggressive_0" type="CAV_aggressive" from="OD8" to="OD10" begin="0" end="3600" number="3"/>
    <flow id="OD8_OD10_HDV_new_0" type="HDV_new" from="OD8" to="OD10" begin="0" end="3600" number="27"/>
    <flow id="OD8_OD11_CAV_aggressive_0" type="CAV_aggressive" from="OD8" to="OD11" begin="0" end="3600" number="3"/>
    <flow id="OD8_OD11_HDV_new_0" type="HDV_new" from="OD8" to="OD11" begin="0" end="3600" number="27"/>
    <flow id="OD8_OD12_CAV_aggressive_0" type="CAV_aggressive" from="OD8" to="OD12" begin="0" end="3600" number="3"/>
    <flow id="OD8_OD12_HDV_new_0" type="HDV_new" from="OD8" to="OD12" begin="0" end="3600" number="27"/>
    <flow id="OD8_OD13_CAV_aggressive_0" type="CAV_aggressive" from="OD8" to="OD13" begin="0" end="3600" number="3"/>
    <flow id="OD8_OD13_HDV_new_0" type="HDV_new" from="OD8" to="OD13" begin="0" end="3600" number="27"/>
    <flow id="OD8_OD14_CAV_aggressive_0" type="CAV_aggressive" from="OD8" to="OD14" begin="0" end="3600" number="3"/>
    <flow id="OD8_OD14_HDV_new_0" type="HDV_new" from="OD8" to="OD14" begin="0" end="3600" number="27"/>
    <flow id="OD8_OD15_CAV_aggressive_0" type="CAV_aggressive" from="OD8" to="OD15" begin="0" end="3600" number="3"/>
    <flow id="OD8_OD15_HDV_new_0" type="HDV_new" from="OD8" to="OD15" begin="0" end="3600" number="27"/>
    <flow id="OD9_OD1_CAV_aggressive_0" type="CAV_aggressive" from="OD9" to="OD1" begin="0" end="3600" number="3"/>
    <flow id="OD9_OD1_HDV_new_0" type="HDV_new" from="OD9" to="OD1" begin="0" end="3600" number="27"/>
    <flow id="OD9_OD2_CAV_aggressive_0" type="CAV_aggressive" from="OD9" to="OD2" begin="0" end="3600" number="3"/>
    <flow id="OD9_OD2_HDV_new_0" type="HDV_new" from="OD9" to="OD2" begin="0" end="3600" number="27"/>
    <flow id="OD9_OD3_CAV_aggressive_0" type="CAV_aggressive" from="OD9" to="OD3" begin="0" end="3600" number="3"/>
    <flow id="OD9_OD3_HDV_new_0" type="HDV_new" from="OD9" to="OD3" begin="0" end="3600" number="27"/>
    <flow id="OD9_OD4_CAV_aggressive_0" type="CAV_aggressive" from="OD9" to="OD4" begin="0" end="3600" number="3"/>
    <flow id="OD9_OD4_HDV_new_0" type="HDV_new" from="OD9" to="OD4" begin="0" end="3600" number="27"/>
    <flow id="OD9_OD5_CAV_aggressive_0" type="CAV_aggressive" from="OD9" to="OD5" begin="0" end="3600" number="3"/>
    <flow id="OD9_OD5_HDV_new_0" type="HDV_new" from="OD9" to="OD5" begin="0" end="3600" number="27"/>
    <flow id="OD9_OD6_CAV_aggressive_0" type="CAV_aggressive" from="OD9" to="OD6" begin="0" end="3600" number="3"/>
    <flow id="OD9_OD6_HDV_new_0" type="HDV_new" from="OD9" to="OD6" begin="0" end="3600" number="27"/>
    <flow id="OD9_OD7_CAV_aggressive_0" type="CAV_aggressive" from="OD9" to="OD7" begin="0" end="3600" number="3"/>
    <flow id="OD9_OD7_HDV_new_0" type="HDV_new" from="OD9" to="OD7" begin="0" end="3600" number="27"/>
    <flow id="OD9_OD8_CAV_aggressive_0" type="CAV_aggressive" from="OD9" to="OD8" begin="0" end="3600" number="3"/>
    <flow id="OD9_OD8_HDV_new_0" type="HDV_new" from="OD9" to="OD8" begin="0" end="3600" number="27"/>
    <flow id="OD9_OD10_CAV_aggressive_0" type="CAV_aggressive" from="OD9" to="OD10" begin="0" end="3600" number="3"/>
    <flow id="OD9_OD10_HDV_new_0" type="HDV_new" from="OD9" to="OD10" begin="0" end="3600" number="27"/>
    <flow id="OD9_OD11_CAV_aggressive_0" type="CAV_aggressive" from="OD9" to="OD11" begin="0" end="3600" number="3"/>
    <flow id="OD9_OD11_HDV_new_0" type="HDV_new" from="OD9" to="OD11" begin="0" end="3600" number="27"/>
    <flow id="OD9_OD12_CAV_aggressive_0" type="CAV_aggressive" from="OD9" to="OD12" begin="0" end="3600" number="3"/>
    <flow id="OD9_OD12_HDV_new_0" type="HDV_new" from="OD9" to="OD12" begin="0" end="3600" number="27"/>
    <flow id="OD9_OD13_CAV_aggressive_0" type="CAV_aggressive" from="OD9" to="OD13" begin="0" end="3600" number="3"/>
    <flow id="OD9_OD13_HDV_new_0" type="HDV_new" from="OD9" to="OD13" begin="0" end="3600" number="27"/>
    <flow id="OD9_OD14_CAV_aggressive_0" type="CAV_aggressive" from="OD9" to="OD14" begin="0" end="3600" number="3"/>
    <flow id="OD9_OD14_HDV_new_0" type="HDV_new" from="OD9" to="OD14" begin="0" end="3600" number="27"/>
    <flow id="OD9_OD15_CAV_aggressive_0" type="CAV_aggressive" from="OD9" to="OD15" begin="0" end="3600" number="3"/>
    <flow id="OD9_OD15_HDV_new_0" type="HDV_new" from="OD9" to="OD15" begin="0" end="3600" number="27"/>
    <flow id="OD10_OD1_CAV_aggressive_0" type="CAV_aggressive" from="OD10" to="OD1" begin="0" end="3600" number="3"/>
    <flow id="OD10_OD1_HDV_new_0" type="HDV_new" from="OD10" to="OD1" begin="0" end="3600" number="27"/>
    <flow id="OD10_OD2_CAV_aggressive_0" type="CAV_aggressive" from="OD10" to="OD2" begin="0" end="3600" number="3"/>
    <flow id="OD10_OD2_HDV_new_0" type="HDV_new" from="OD10" to="OD2" begin="0" end="3600" number="27"/>
    <flow id="OD10_OD3_CAV_aggressive_0" type="CAV_aggressive" from="OD10" to="OD3" begin="0" end="3600" number="3"/>
    <flow id="OD10_OD3_HDV_new_0" type="HDV_new" from="OD10" to="OD3" begin="0" end="3600" number="27"/>