<configuration xmlns:xsi="http://www.w3.org/2001/XMLSchema-instance"
               xsi:noNamespaceSchemaLocation="http://sumo.dlr.de/xsd/sumoConfiguration.xsd">
    <input>
        <net-file value="F:/HK_traffic_flow - new0117/HK_traffic_flow - new0117/osm.net.xml"/>
        <additional-files value="F:/HK_traffic_flow - new0117/HK_traffic_flow - new0117/detectors.add.50%.xml"/>
        <route-files value="F:/HK_traffic_flow - new0117/HK_traffic_flow - new0117/test_dynamic_routes.rou.xml"/>

        
    </input>

    <time>
        <begin value="0"/>
        <end value="10800"/>
        <step-length value="1"/>
    </time>

    <gui_only>
        <delay value="0"/>
    </gui_only>

    <processing>
        <lateral-resolution value="0.25"/> <!-- 子车道宽度（默认0.25米） -->
    </processing>
</configuration>
